data_105
_audit_creation_date              2023-09-08
_audit_creation_method            'Materials Studio'
_symmetry_space_group_name_H-M    'P1'
_symmetry_Int_Tables_number       1
_symmetry_cell_setting            triclinic
loop_
_symmetry_equiv_pos_as_xyz
  x,y,z
_cell_length_a                    53.1523
_cell_length_b                    53.1523
_cell_length_c                    16.7789
_cell_angle_alpha                 90.0000
_cell_angle_beta                  90.0000
_cell_angle_gamma                 90.0000
loop_
_atom_site_label
_atom_site_type_symbol
_atom_site_fract_x
_atom_site_fract_y
_atom_site_fract_z
_atom_site_U_iso_or_equiv
_atom_site_adp_type
_atom_site_occupancy
C1     C     0.46180   0.46990   0.02490   0.00000  Uiso   1.00
C2     C     0.49370   0.45870   0.92280   0.00000  Uiso   1.00
C3     C     0.48640   0.41800   0.84690   0.00000  Uiso   1.00
C4     C     0.53200   0.48930   0.89870   0.00000  Uiso   1.00
N5     N     0.51670   0.40600   0.74840   0.00000  Uiso   1.00
C6     C     0.51190   0.36670   0.65920   0.00000  Uiso   1.00
C7     C     0.55130   0.35290   0.58520   0.00000  Uiso   1.00
C8     C     0.54820   0.31580   0.49390   0.00000  Uiso   1.00
C9     C     0.50470   0.29270   0.47040   0.00000  Uiso   1.00
C10    C     0.46570   0.30570   0.54980   0.00000  Uiso   1.00
C11    C     0.46890   0.34260   0.64120   0.00000  Uiso   1.00
H12    H     0.43180   0.44710   0.04590   0.00000  Uiso   1.00
H13    H     0.45630   0.39570   0.86890   0.00000  Uiso   1.00
H14    H     0.55740   0.48190   0.82080   0.00000  Uiso   1.00
H15    H     0.58490   0.37060   0.59960   0.00000  Uiso   1.00
H16    H     0.58030   0.30520   0.44440   0.00000  Uiso   1.00
H17    H     0.43220   0.28740   0.53960   0.00000  Uiso   1.00
H18    H     0.43740   0.35270   0.69570   0.00000  Uiso   1.00
C19    C     0.96180   0.96990   0.52490   0.00000  Uiso   1.00
C20    C     0.99370   0.95870   0.42280   0.00000  Uiso   1.00
C21    C     0.98640   0.91800   0.34690   0.00000  Uiso   1.00
C22    C     0.03200   0.98930   0.39870   0.00000  Uiso   1.00
N23    N     0.01670   0.90600   0.24840   0.00000  Uiso   1.00
C24    C     0.01190   0.86670   0.15920   0.00000  Uiso   1.00
C25    C     0.05130   0.85290   0.08520   0.00000  Uiso   1.00
C26    C     0.04820   0.81580   0.99390   0.00000  Uiso   1.00
C27    C     0.00470   0.79270   0.97040   0.00000  Uiso   1.00
C28    C     0.96570   0.80570   0.04980   0.00000  Uiso   1.00
C29    C     0.96890   0.84260   0.14120   0.00000  Uiso   1.00
H30    H     0.93180   0.94710   0.54590   0.00000  Uiso   1.00
H31    H     0.95630   0.89570   0.36890   0.00000  Uiso   1.00
H32    H     0.05740   0.98190   0.32080   0.00000  Uiso   1.00
H33    H     0.08490   0.87060   0.09960   0.00000  Uiso   1.00
H34    H     0.08030   0.80520   0.94440   0.00000  Uiso   1.00
H35    H     0.93220   0.78740   0.03960   0.00000  Uiso   1.00
H36    H     0.93740   0.85270   0.19570   0.00000  Uiso   1.00
C37    C     0.03820   0.53010   0.52490   0.00000  Uiso   1.00
C38    C     0.00630   0.54130   0.42280   0.00000  Uiso   1.00
C39    C     0.01360   0.58200   0.34690   0.00000  Uiso   1.00
C40    C     0.96800   0.51070   0.39870   0.00000  Uiso   1.00
N41    N     0.98330   0.59400   0.24840   0.00000  Uiso   1.00
C42    C     0.98810   0.63330   0.15920   0.00000  Uiso   1.00
C43    C     0.94870   0.64710   0.08520   0.00000  Uiso   1.00
C44    C     0.95180   0.68420   0.99390   0.00000  Uiso   1.00
C45    C     0.99530   0.70730   0.97040   0.00000  Uiso   1.00
C46    C     0.03430   0.69430   0.04980   0.00000  Uiso   1.00
C47    C     0.03110   0.65740   0.14120   0.00000  Uiso   1.00
H48    H     0.06820   0.55290   0.54590   0.00000  Uiso   1.00
H49    H     0.04370   0.60430   0.36890   0.00000  Uiso   1.00
H50    H     0.94260   0.51810   0.32080   0.00000  Uiso   1.00
H51    H     0.91510   0.62940   0.09960   0.00000  Uiso   1.00
H52    H     0.91970   0.69480   0.94440   0.00000  Uiso   1.00
H53    H     0.06780   0.71260   0.03960   0.00000  Uiso   1.00
H54    H     0.06260   0.64730   0.19570   0.00000  Uiso   1.00
C55    C     0.53820   0.03010   0.02490   0.00000  Uiso   1.00
C56    C     0.50630   0.04130   0.92280   0.00000  Uiso   1.00
C57    C     0.51360   0.08200   0.84690   0.00000  Uiso   1.00
C58    C     0.46800   0.01070   0.89870   0.00000  Uiso   1.00
N59    N     0.48330   0.09400   0.74840   0.00000  Uiso   1.00
C60    C     0.48810   0.13330   0.65920   0.00000  Uiso   1.00
C61    C     0.44870   0.14710   0.58520   0.00000  Uiso   1.00
C62    C     0.45180   0.18420   0.49390   0.00000  Uiso   1.00
C63    C     0.49530   0.20730   0.47040   0.00000  Uiso   1.00
C64    C     0.53430   0.19430   0.54980   0.00000  Uiso   1.00
C65    C     0.53110   0.15740   0.64120   0.00000  Uiso   1.00
H66    H     0.56820   0.05290   0.04590   0.00000  Uiso   1.00
H67    H     0.54370   0.10430   0.86890   0.00000  Uiso   1.00
H68    H     0.44260   0.01810   0.82080   0.00000  Uiso   1.00
H69    H     0.41510   0.12940   0.59960   0.00000  Uiso   1.00
H70    H     0.41970   0.19480   0.44440   0.00000  Uiso   1.00
H71    H     0.56780   0.21260   0.53960   0.00000  Uiso   1.00
H72    H     0.56260   0.14730   0.69570   0.00000  Uiso   1.00
C73    C     0.28010   0.71180   0.27490   0.00000  Uiso   1.00
C74    C     0.29130   0.74370   0.17280   0.00000  Uiso   1.00
C75    C     0.33200   0.73640   0.09690   0.00000  Uiso   1.00
C76    C     0.26070   0.78200   0.14870   0.00000  Uiso   1.00
N77    N     0.34400   0.76670   0.99840   0.00000  Uiso   1.00
C78    C     0.38330   0.76190   0.90920   0.00000  Uiso   1.00
C79    C     0.39710   0.80130   0.83520   0.00000  Uiso   1.00
C80    C     0.43420   0.79820   0.74390   0.00000  Uiso   1.00
C81    C     0.45730   0.75470   0.72040   0.00000  Uiso   1.00
C82    C     0.44430   0.71570   0.79980   0.00000  Uiso   1.00
C83    C     0.40740   0.71890   0.89120   0.00000  Uiso   1.00
H84    H     0.30290   0.68180   0.29590   0.00000  Uiso   1.00
H85    H     0.35430   0.70630   0.11890   0.00000  Uiso   1.00
H86    H     0.26810   0.80740   0.07080   0.00000  Uiso   1.00
H87    H     0.37940   0.83490   0.84960   0.00000  Uiso   1.00
H88    H     0.44480   0.83030   0.69440   0.00000  Uiso   1.00
H89    H     0.46260   0.68220   0.78960   0.00000  Uiso   1.00
H90    H     0.39730   0.68740   0.94570   0.00000  Uiso   1.00
C91    C     0.78010   0.21180   0.77490   0.00000  Uiso   1.00
C92    C     0.79130   0.24370   0.67280   0.00000  Uiso   1.00
C93    C     0.83200   0.23640   0.59690   0.00000  Uiso   1.00
C94    C     0.76070   0.28200   0.64870   0.00000  Uiso   1.00
N95    N     0.84400   0.26670   0.49840   0.00000  Uiso   1.00
C96    C     0.88330   0.26190   0.40920   0.00000  Uiso   1.00
C97    C     0.89710   0.30130   0.33520   0.00000  Uiso   1.00
C98    C     0.93420   0.29820   0.24390   0.00000  Uiso   1.00
C99    C     0.95730   0.25470   0.22040   0.00000  Uiso   1.00
C100   C     0.94430   0.21570   0.29980   0.00000  Uiso   1.00
C101   C     0.90740   0.21890   0.39120   0.00000  Uiso   1.00
H102   H     0.80290   0.18180   0.79590   0.00000  Uiso   1.00
H103   H     0.85430   0.20630   0.61890   0.00000  Uiso   1.00
H104   H     0.76810   0.30740   0.57080   0.00000  Uiso   1.00
H105   H     0.87940   0.33490   0.34960   0.00000  Uiso   1.00
H106   H     0.94480   0.33030   0.19440   0.00000  Uiso   1.00
H107   H     0.96260   0.18220   0.28960   0.00000  Uiso   1.00
H108   H     0.89730   0.18740   0.44570   0.00000  Uiso   1.00
C109   C     0.21990   0.28820   0.77490   0.00000  Uiso   1.00
C110   C     0.20870   0.25630   0.67280   0.00000  Uiso   1.00
C111   C     0.16800   0.26360   0.59690   0.00000  Uiso   1.00
C112   C     0.23930   0.21800   0.64870   0.00000  Uiso   1.00
N113   N     0.15600   0.23330   0.49840   0.00000  Uiso   1.00
C114   C     0.11670   0.23810   0.40920   0.00000  Uiso   1.00
C115   C     0.10290   0.19870   0.33520   0.00000  Uiso   1.00
C116   C     0.06580   0.20180   0.24390   0.00000  Uiso   1.00
C117   C     0.04270   0.24530   0.22040   0.00000  Uiso   1.00
C118   C     0.05570   0.28430   0.29980   0.00000  Uiso   1.00
C119   C     0.09260   0.28110   0.39120   0.00000  Uiso   1.00
H120   H     0.19710   0.31820   0.79590   0.00000  Uiso   1.00
H121   H     0.14570   0.29370   0.61890   0.00000  Uiso   1.00
H122   H     0.23190   0.19260   0.57080   0.00000  Uiso   1.00
H123   H     0.12060   0.16510   0.34960   0.00000  Uiso   1.00
H124   H     0.05520   0.16970   0.19440   0.00000  Uiso   1.00
H125   H     0.03740   0.31780   0.28960   0.00000  Uiso   1.00
H126   H     0.10270   0.31260   0.44570   0.00000  Uiso   1.00
C127   C     0.71990   0.78820   0.27490   0.00000  Uiso   1.00
C128   C     0.70870   0.75630   0.17280   0.00000  Uiso   1.00
C129   C     0.66800   0.76360   0.09690   0.00000  Uiso   1.00
C130   C     0.73930   0.71800   0.14870   0.00000  Uiso   1.00
N131   N     0.65600   0.73330   0.99840   0.00000  Uiso   1.00
C132   C     0.61670   0.73810   0.90920   0.00000  Uiso   1.00
C133   C     0.60290   0.69870   0.83520   0.00000  Uiso   1.00
C134   C     0.56580   0.70180   0.74390   0.00000  Uiso   1.00
C135   C     0.54270   0.74530   0.72040   0.00000  Uiso   1.00
C136   C     0.55570   0.78430   0.79980   0.00000  Uiso   1.00
C137   C     0.59260   0.78110   0.89120   0.00000  Uiso   1.00
H138   H     0.69710   0.81820   0.29590   0.00000  Uiso   1.00
H139   H     0.64570   0.79370   0.11890   0.00000  Uiso   1.00
H140   H     0.73190   0.69260   0.07080   0.00000  Uiso   1.00
H141   H     0.62060   0.66510   0.84960   0.00000  Uiso   1.00
H142   H     0.55520   0.66970   0.69440   0.00000  Uiso   1.00
H143   H     0.53740   0.81780   0.78960   0.00000  Uiso   1.00
H144   H     0.60270   0.81260   0.94570   0.00000  Uiso   1.00
C145   C     0.53820   0.53010   0.97510   0.00000  Uiso   1.00
C146   C     0.50630   0.54130   0.07720   0.00000  Uiso   1.00
C147   C     0.51360   0.58200   0.15310   0.00000  Uiso   1.00
C148   C     0.46800   0.51070   0.10130   0.00000  Uiso   1.00
N149   N     0.48330   0.59400   0.25160   0.00000  Uiso   1.00
C150   C     0.48810   0.63330   0.34080   0.00000  Uiso   1.00
C151   C     0.44870   0.64710   0.41480   0.00000  Uiso   1.00
C152   C     0.45180   0.68420   0.50610   0.00000  Uiso   1.00
C153   C     0.49530   0.70730   0.52960   0.00000  Uiso   1.00
C154   C     0.53430   0.69430   0.45020   0.00000  Uiso   1.00
C155   C     0.53110   0.65740   0.35880   0.00000  Uiso   1.00
H156   H     0.56820   0.55290   0.95410   0.00000  Uiso   1.00
H157   H     0.54370   0.60430   0.13110   0.00000  Uiso   1.00
H158   H     0.44260   0.51810   0.17920   0.00000  Uiso   1.00
H159   H     0.41510   0.62940   0.40040   0.00000  Uiso   1.00
H160   H     0.41970   0.69480   0.55560   0.00000  Uiso   1.00
H161   H     0.56780   0.71260   0.46040   0.00000  Uiso   1.00
H162   H     0.56260   0.64730   0.30430   0.00000  Uiso   1.00
C163   C     0.03820   0.03010   0.47510   0.00000  Uiso   1.00
C164   C     0.00630   0.04130   0.57720   0.00000  Uiso   1.00
C165   C     0.01360   0.08200   0.65310   0.00000  Uiso   1.00
C166   C     0.96800   0.01070   0.60130   0.00000  Uiso   1.00
N167   N     0.98330   0.09400   0.75160   0.00000  Uiso   1.00
C168   C     0.98810   0.13330   0.84080   0.00000  Uiso   1.00
C169   C     0.94870   0.14710   0.91480   0.00000  Uiso   1.00
C170   C     0.95180   0.18420   0.00610   0.00000  Uiso   1.00
C171   C     0.99530   0.20730   0.02960   0.00000  Uiso   1.00
C172   C     0.03430   0.19430   0.95020   0.00000  Uiso   1.00
C173   C     0.03110   0.15740   0.85880   0.00000  Uiso   1.00
H174   H     0.06820   0.05290   0.45410   0.00000  Uiso   1.00
H175   H     0.04370   0.10430   0.63110   0.00000  Uiso   1.00
H176   H     0.94260   0.01810   0.67920   0.00000  Uiso   1.00
H177   H     0.91510   0.12940   0.90040   0.00000  Uiso   1.00
H178   H     0.91970   0.19480   0.05560   0.00000  Uiso   1.00
H179   H     0.06780   0.21260   0.96040   0.00000  Uiso   1.00
H180   H     0.06260   0.14730   0.80430   0.00000  Uiso   1.00
C181   C     0.96180   0.46990   0.47510   0.00000  Uiso   1.00
C182   C     0.99370   0.45870   0.57720   0.00000  Uiso   1.00
C183   C     0.98640   0.41800   0.65310   0.00000  Uiso   1.00
C184   C     0.03200   0.48930   0.60130   0.00000  Uiso   1.00
N185   N     0.01670   0.40600   0.75160   0.00000  Uiso   1.00
C186   C     0.01190   0.36670   0.84080   0.00000  Uiso   1.00
C187   C     0.05130   0.35290   0.91480   0.00000  Uiso   1.00
C188   C     0.04820   0.31580   0.00610   0.00000  Uiso   1.00
C189   C     0.00470   0.29270   0.02960   0.00000  Uiso   1.00
C190   C     0.96570   0.30570   0.95020   0.00000  Uiso   1.00
C191   C     0.96890   0.34260   0.85880   0.00000  Uiso   1.00
H192   H     0.93180   0.44710   0.45410   0.00000  Uiso   1.00
H193   H     0.95630   0.39570   0.63110   0.00000  Uiso   1.00
H194   H     0.05740   0.48190   0.67920   0.00000  Uiso   1.00
H195   H     0.08490   0.37060   0.90040   0.00000  Uiso   1.00
H196   H     0.08030   0.30520   0.05560   0.00000  Uiso   1.00
H197   H     0.93220   0.28740   0.96040   0.00000  Uiso   1.00
H198   H     0.93740   0.35270   0.80430   0.00000  Uiso   1.00
C199   C     0.46180   0.96990   0.97510   0.00000  Uiso   1.00
C200   C     0.49370   0.95870   0.07720   0.00000  Uiso   1.00
C201   C     0.48640   0.91800   0.15310   0.00000  Uiso   1.00
C202   C     0.53200   0.98930   0.10130   0.00000  Uiso   1.00
N203   N     0.51670   0.90600   0.25160   0.00000  Uiso   1.00
C204   C     0.51190   0.86670   0.34080   0.00000  Uiso   1.00
C205   C     0.55130   0.85290   0.41480   0.00000  Uiso   1.00
C206   C     0.54820   0.81580   0.50610   0.00000  Uiso   1.00
C207   C     0.50470   0.79270   0.52960   0.00000  Uiso   1.00
C208   C     0.46570   0.80570   0.45020   0.00000  Uiso   1.00
C209   C     0.46890   0.84260   0.35880   0.00000  Uiso   1.00
H210   H     0.43180   0.94710   0.95410   0.00000  Uiso   1.00
H211   H     0.45630   0.89570   0.13110   0.00000  Uiso   1.00
H212   H     0.55740   0.98190   0.17920   0.00000  Uiso   1.00
H213   H     0.58490   0.87060   0.40040   0.00000  Uiso   1.00
H214   H     0.58030   0.80520   0.55560   0.00000  Uiso   1.00
H215   H     0.43220   0.78740   0.46040   0.00000  Uiso   1.00
H216   H     0.43740   0.85270   0.30430   0.00000  Uiso   1.00
C217   C     0.71990   0.28820   0.72510   0.00000  Uiso   1.00
C218   C     0.70870   0.25630   0.82720   0.00000  Uiso   1.00
C219   C     0.66800   0.26360   0.90310   0.00000  Uiso   1.00
C220   C     0.73930   0.21800   0.85130   0.00000  Uiso   1.00
N221   N     0.65600   0.23330   0.00160   0.00000  Uiso   1.00
C222   C     0.61670   0.23810   0.09080   0.00000  Uiso   1.00
C223   C     0.60290   0.19870   0.16480   0.00000  Uiso   1.00
C224   C     0.56580   0.20180   0.25610   0.00000  Uiso   1.00
C225   C     0.54270   0.24530   0.27960   0.00000  Uiso   1.00
C226   C     0.55570   0.28430   0.20020   0.00000  Uiso   1.00
C227   C     0.59260   0.28110   0.10880   0.00000  Uiso   1.00
H228   H     0.69710   0.31820   0.70410   0.00000  Uiso   1.00
H229   H     0.64570   0.29370   0.88110   0.00000  Uiso   1.00
H230   H     0.73190   0.19260   0.92920   0.00000  Uiso   1.00
H231   H     0.62060   0.16510   0.15040   0.00000  Uiso   1.00
H232   H     0.55520   0.16970   0.30560   0.00000  Uiso   1.00
H233   H     0.53740   0.31780   0.21040   0.00000  Uiso   1.00
H234   H     0.60270   0.31260   0.05430   0.00000  Uiso   1.00
C235   C     0.21990   0.78820   0.22510   0.00000  Uiso   1.00
C236   C     0.20870   0.75630   0.32720   0.00000  Uiso   1.00
C237   C     0.16800   0.76360   0.40310   0.00000  Uiso   1.00
C238   C     0.23930   0.71800   0.35130   0.00000  Uiso   1.00
N239   N     0.15600   0.73330   0.50160   0.00000  Uiso   1.00
C240   C     0.11670   0.73810   0.59080   0.00000  Uiso   1.00
C241   C     0.10290   0.69870   0.66480   0.00000  Uiso   1.00
C242   C     0.06580   0.70180   0.75610   0.00000  Uiso   1.00
C243   C     0.04270   0.74530   0.77960   0.00000  Uiso   1.00
C244   C     0.05570   0.78430   0.70020   0.00000  Uiso   1.00
C245   C     0.09260   0.78110   0.60880   0.00000  Uiso   1.00
H246   H     0.19710   0.81820   0.20410   0.00000  Uiso   1.00
H247   H     0.14570   0.79370   0.38110   0.00000  Uiso   1.00
H248   H     0.23190   0.69260   0.42920   0.00000  Uiso   1.00
H249   H     0.12060   0.66510   0.65040   0.00000  Uiso   1.00
H250   H     0.05520   0.66970   0.80560   0.00000  Uiso   1.00
H251   H     0.03740   0.81780   0.71040   0.00000  Uiso   1.00
H252   H     0.10270   0.81260   0.55430   0.00000  Uiso   1.00
C253   C     0.78010   0.71180   0.22510   0.00000  Uiso   1.00
C254   C     0.79130   0.74370   0.32720   0.00000  Uiso   1.00
C255   C     0.83200   0.73640   0.40310   0.00000  Uiso   1.00
C256   C     0.76070   0.78200   0.35130   0.00000  Uiso   1.00
N257   N     0.84400   0.76670   0.50160   0.00000  Uiso   1.00
C258   C     0.88330   0.76190   0.59080   0.00000  Uiso   1.00
C259   C     0.89710   0.80130   0.66480   0.00000  Uiso   1.00
C260   C     0.93420   0.79820   0.75610   0.00000  Uiso   1.00
C261   C     0.95730   0.75470   0.77960   0.00000  Uiso   1.00
C262   C     0.94430   0.71570   0.70020   0.00000  Uiso   1.00
C263   C     0.90740   0.71890   0.60880   0.00000  Uiso   1.00
H264   H     0.80290   0.68180   0.20410   0.00000  Uiso   1.00
H265   H     0.85430   0.70630   0.38110   0.00000  Uiso   1.00
H266   H     0.76810   0.80740   0.42920   0.00000  Uiso   1.00
H267   H     0.87940   0.83490   0.65040   0.00000  Uiso   1.00
H268   H     0.94480   0.83030   0.80560   0.00000  Uiso   1.00
H269   H     0.96260   0.68220   0.71040   0.00000  Uiso   1.00
H270   H     0.89730   0.68740   0.55430   0.00000  Uiso   1.00
C271   C     0.28010   0.21180   0.72510   0.00000  Uiso   1.00
C272   C     0.29130   0.24370   0.82720   0.00000  Uiso   1.00
C273   C     0.33200   0.23640   0.90310   0.00000  Uiso   1.00
C274   C     0.26070   0.28200   0.85130   0.00000  Uiso   1.00
N275   N     0.34400   0.26670   0.00160   0.00000  Uiso   1.00
C276   C     0.38330   0.26190   0.09080   0.00000  Uiso   1.00
C277   C     0.39710   0.30130   0.16480   0.00000  Uiso   1.00
C278   C     0.43420   0.29820   0.25610   0.00000  Uiso   1.00
C279   C     0.45730   0.25470   0.27960   0.00000  Uiso   1.00
C280   C     0.44430   0.21570   0.20020   0.00000  Uiso   1.00
C281   C     0.40740   0.21890   0.10880   0.00000  Uiso   1.00
H282   H     0.30290   0.18180   0.70410   0.00000  Uiso   1.00
H283   H     0.35430   0.20630   0.88110   0.00000  Uiso   1.00
H284   H     0.26810   0.30740   0.92920   0.00000  Uiso   1.00
H285   H     0.37940   0.33490   0.15040   0.00000  Uiso   1.00
H286   H     0.44480   0.33030   0.30560   0.00000  Uiso   1.00
H287   H     0.46260   0.18220   0.21040   0.00000  Uiso   1.00
H288   H     0.39730   0.18740   0.05430   0.00000  Uiso   1.00
C289   C     0.00000   0.25000   0.12500   0.00000  Uiso   1.00
C290   C     0.50000   0.75000   0.62500   0.00000  Uiso   1.00
C291   C     0.50000   0.25000   0.37500   0.00000  Uiso   1.00
C292   C     0.00000   0.75000   0.87500   0.00000  Uiso   1.00
loop_
_geom_bond_atom_site_label_1
_geom_bond_atom_site_label_2
_geom_bond_distance
_geom_bond_site_symmetry_2
_ccdc_geom_bond_type
C1     C2      1.314   1_554 S
C1     H12     1.076   .     S
C1     C148    1.344   .     D
C2     C1      1.314   1_556 S
C2     C3      1.344   .     S
C2     C4      1.395   .     D
C3     N5      1.267   .     D
C3     H13     1.072   .     S
C4     H14     1.016   .     S
C4     C145    1.344   .     S
N5     C6      1.367   .     S
C6     C7      1.346   .     D
C6     C11     1.396   .     S
C7     C8      1.324   .     S
C7     H15     1.076   .     S
C8     C9      1.401   .     D
C8     H16     1.047   .     S
C9     C10     1.354   .     S
C9     C291    1.476   .     S
C10    C11     1.321   .     D
C10    H17     1.077   .     S
C11    H18     1.049   .     S
C19    C20     1.314   .     S
C19    H30     1.076   .     S
C19    C166    1.344   1_565 D
C20    C21     1.344   .     S
C20    C22     1.395   1_655 D
C21    N23     1.267   1_655 D
C21    H31     1.072   .     S
C22    C20     1.395   1_455 D
C22    H32     1.016   .     S
C22    C163    1.344   1_565 S
N23    C21     1.267   1_455 D
N23    C24     1.367   .     S
C24    C25     1.346   .     D
C24    C29     1.396   1_455 S
C25    C26     1.324   1_554 S
C25    H33     1.076   .     S
C26    C25     1.324   1_556 S
C26    C27     1.401   .     D
C26    H34     1.047   .     S
C27    C28     1.354   1_456 S
C27    C292    1.476   .     S
C28    C27     1.354   1_654 S
C28    C29     1.321   .     D
C28    H35     1.077   .     S
C29    C24     1.396   1_655 S
C29    H36     1.049   .     S
C37    C38     1.314   .     S
C37    H48     1.076   .     S
C37    C184    1.344   .     D
C38    C39     1.344   .     S
C38    C40     1.395   1_455 D
C39    N41     1.267   1_455 D
C39    H49     1.072   .     S
C40    C38     1.395   1_655 D
C40    H50     1.016   .     S
C40    C181    1.344   .     S
N41    C39     1.267   1_655 D
N41    C42     1.367   .     S
C42    C43     1.346   .     D
C42    C47     1.396   1_655 S
C43    C44     1.324   1_554 S
C43    H51     1.076   .     S
C44    C43     1.324   1_556 S
C44    C45     1.401   .     D
C44    H52     1.047   .     S
C45    C46     1.354   1_656 S
C45    C292    1.476   1_655 S
C46    C45     1.354   1_454 S
C46    C47     1.321   .     D
C46    H53     1.077   .     S
C47    C42     1.396   1_455 S
C47    H54     1.049   .     S
C55    C56     1.314   1_554 S
C55    H66     1.076   .     S
C55    C202    1.344   1_545 D
C56    C55     1.314   1_556 S
C56    C57     1.344   .     S
C56    C58     1.395   .     D
C57    N59     1.267   .     D
C57    H67     1.072   .     S
C58    H68     1.016   .     S
C58    C199    1.344   1_545 S
N59    C60     1.367   .     S
C60    C61     1.346   .     D
C60    C65     1.396   .     S
C61    C62     1.324   .     S
C61    H69     1.076   .     S
C62    C63     1.401   .     D
C62    H70     1.047   .     S
C63    C64     1.354   .     S
C63    C291    1.476   .     S
C64    C65     1.321   .     D
C64    H71     1.077   .     S
C65    H72     1.049   .     S
C73    C74     1.314   .     D
C73    H84     1.076   .     S
C73    C238    1.344   .     S
C74    C75     1.344   .     S
C74    C76     1.395   .     S
C75    N77     1.267   1_554 D
C75    H85     1.072   .     S
C76    H86     1.016   .     S
C76    C235    1.344   .     D
N77    C75     1.267   1_556 D
N77    C78     1.367   .     S
C78    C79     1.346   .     S
C78    C83     1.396   .     D
C79    C80     1.324   .     D
C79    H87     1.076   .     S
C80    C81     1.401   .     S
C80    H88     1.047   .     S
C81    C82     1.354   .     D
C81    C290    1.476   .     S
C82    C83     1.321   .     S
C82    H89     1.077   .     S
C83    H90     1.049   .     S
C91    C92     1.314   .     S
C91    H102    1.076   .     S
C91    C220    1.344   .     D
C92    C93     1.344   .     S
C92    C94     1.395   .     D
C93    N95     1.267   .     D
C93    H103    1.072   .     S
C94    H104    1.016   .     S
C94    C217    1.344   .     S
N95    C96     1.367   .     S
C96    C97     1.346   .     D
C96    C101    1.396   .     S
C97    C98     1.324   .     S
C97    H105    1.076   .     S
C98    C99     1.401   .     D
C98    H106    1.047   .     S
C99    C100    1.354   .     S
C99    C289    1.476   1_655 S
C100   C101    1.321   .     D
C100   H107    1.077   .     S
C101   H108    1.049   .     S
C109   C110    1.314   .     S
C109   H120    1.076   .     S
C109   C274    1.344   .     D
C110   C111    1.344   .     S
C110   C112    1.395   .     D
C111   N113    1.267   .     D
C111   H121    1.072   .     S
C112   H122    1.016   .     S
C112   C271    1.344   .     S
N113   C114    1.367   .     S
C114   C115    1.346   .     D
C114   C119    1.396   .     S
C115   C116    1.324   .     S
C115   H123    1.076   .     S
C116   C117    1.401   .     D
C116   H124    1.047   .     S
C117   C118    1.354   .     S
C117   C289    1.476   .     S
C118   C119    1.321   .     D
C118   H125    1.077   .     S
C119   H126    1.049   .     S
C127   C128    1.314   .     D
C127   H138    1.076   .     S
C127   C256    1.344   .     S
C128   C129    1.344   .     S
C128   C130    1.395   .     S
C129   N131    1.267   1_554 D
C129   H139    1.072   .     S
C130   H140    1.016   .     S
C130   C253    1.344   .     D
N131   C129    1.267   1_556 D
N131   C132    1.367   .     S
C132   C133    1.346   .     S
C132   C137    1.396   .     D
C133   C134    1.324   .     D
C133   H141    1.076   .     S
C134   C135    1.401   .     S
C134   H142    1.047   .     S
C135   C136    1.354   .     D
C135   C290    1.476   .     S
C136   C137    1.321   .     S
C136   H143    1.077   .     S
C137   H144    1.049   .     S
C145   C146    1.314   1_556 D
C145   H156    1.076   .     S
C146   C145    1.314   1_554 D
C146   C147    1.344   .     S
C146   C148    1.395   .     S
C147   N149    1.267   .     D
C147   H157    1.072   .     S
C148   H158    1.016   .     S
N149   C150    1.367   .     S
C150   C151    1.346   .     S
C150   C155    1.396   .     D
C151   C152    1.324   .     D
C151   H159    1.076   .     S
C152   C153    1.401   .     S
C152   H160    1.047   .     S
C153   C154    1.354   .     D
C153   C290    1.476   .     S
C154   C155    1.321   .     S
C154   H161    1.077   .     S
C155   H162    1.049   .     S
C163   C22     1.344   1_545 S
C163   C164    1.314   .     D
C163   H174    1.076   .     S
C164   C165    1.344   .     S
C164   C166    1.395   1_455 S
C165   N167    1.267   1_455 D
C165   H175    1.072   .     S
C166   C164    1.395   1_655 S
C166   C19     1.344   1_545 D
C166   H176    1.016   .     S
N167   C165    1.267   1_655 D
N167   C168    1.367   .     S
C168   C169    1.346   .     S
C168   C173    1.396   1_655 D
C169   C170    1.324   1_556 D
C169   H177    1.076   .     S
C170   C169    1.324   1_554 D
C170   C171    1.401   .     S
C170   H178    1.047   .     S
C171   C172    1.354   1_654 D
C171   C289    1.476   1_655 S
C172   C171    1.354   1_456 D
C172   C173    1.321   .     S
C172   H179    1.077   .     S
C173   C168    1.396   1_455 D
C173   H180    1.049   .     S
C181   C182    1.314   .     D
C181   H192    1.076   .     S
C182   C183    1.344   .     S
C182   C184    1.395   1_655 S
C183   N185    1.267   1_655 D
C183   H193    1.072   .     S
C184   C182    1.395   1_455 S
C184   H194    1.016   .     S
N185   C183    1.267   1_455 D
N185   C186    1.367   .     S
C186   C187    1.346   .     S
C186   C191    1.396   1_455 D
C187   C188    1.324   1_556 D
C187   H195    1.076   .     S
C188   C187    1.324   1_554 D
C188   C189    1.401   .     S
C188   H196    1.047   .     S
C189   C190    1.354   1_454 D
C189   C289    1.476   .     S
C190   C189    1.354   1_656 D
C190   C191    1.321   .     S
C190   H197    1.077   .     S
C191   C186    1.396   1_655 D
C191   H198    1.049   .     S
C199   C58     1.344   1_565 S
C199   C200    1.314   1_556 D
C199   H210    1.076   .     S
C200   C199    1.314   1_554 D
C200   C201    1.344   .     S
C200   C202    1.395   .     S
C201   N203    1.267   .     D
C201   H211    1.072   .     S
C202   C55     1.344   1_565 D
C202   H212    1.016   .     S
N203   C204    1.367   .     S
C204   C205    1.346   .     S
C204   C209    1.396   .     D
C205   C206    1.324   .     D
C205   H213    1.076   .     S
C206   C207    1.401   .     S
C206   H214    1.047   .     S
C207   C208    1.354   .     D
C207   C290    1.476   .     S
C208   C209    1.321   .     S
C208   H215    1.077   .     S
C209   H216    1.049   .     S
C217   C218    1.314   .     D
C217   H228    1.076   .     S
C218   C219    1.344   .     S
C218   C220    1.395   .     S
C219   N221    1.267   1_556 D
C219   H229    1.072   .     S
C220   H230    1.016   .     S
N221   C219    1.267   1_554 D
N221   C222    1.367   .     S
C222   C223    1.346   .     S
C222   C227    1.396   .     D
C223   C224    1.324   .     D
C223   H231    1.076   .     S
C224   C225    1.401   .     S
C224   H232    1.047   .     S
C225   C226    1.354   .     D
C225   C291    1.476   .     S
C226   C227    1.321   .     S
C226   H233    1.077   .     S
C227   H234    1.049   .     S
C235   C236    1.314   .     S
C235   H246    1.076   .     S
C236   C237    1.344   .     S
C236   C238    1.395   .     D
C237   N239    1.267   .     D
C237   H247    1.072   .     S
C238   H248    1.016   .     S
N239   C240    1.367   .     S
C240   C241    1.346   .     S
C240   C245    1.396   .     D
C241   C242    1.324   .     D
C241   H249    1.076   .     S
C242   C243    1.401   .     S
C242   H250    1.047   .     S
C243   C244    1.354   .     D
C243   C292    1.476   .     S
C244   C245    1.321   .     S
C244   H251    1.077   .     S
C245   H252    1.049   .     S
C253   C254    1.314   .     S
C253   H264    1.076   .     S
C254   C255    1.344   .     S
C254   C256    1.395   .     D
C255   N257    1.267   .     D
C255   H265    1.072   .     S
C256   H266    1.016   .     S
N257   C258    1.367   .     S
C258   C259    1.346   .     S
C258   C263    1.396   .     D
C259   C260    1.324   .     D
C259   H267    1.076   .     S
C260   C261    1.401   .     S
C260   H268    1.047   .     S
C261   C262    1.354   .     D
C261   C292    1.476   1_655 S
C262   C263    1.321   .     S
C262   H269    1.077   .     S
C263   H270    1.049   .     S
C271   C272    1.314   .     D
C271   H282    1.076   .     S
C272   C273    1.344   .     S
C272   C274    1.395   .     S
C273   N275    1.267   1_556 D
C273   H283    1.072   .     S
C274   H284    1.016   .     S
N275   C273    1.267   1_554 D
N275   C276    1.367   .     S
C276   C277    1.346   .     S
C276   C281    1.396   .     D
C277   C278    1.324   .     D
C277   H285    1.076   .     S
C278   C279    1.401   .     S
C278   H286    1.047   .     S
C279   C280    1.354   .     D
C279   C291    1.476   .     S
C280   C281    1.321   .     S
C280   H287    1.077   .     S
C281   H288    1.049   .     S
C289   C171    1.476   1_455 S
C289   C99     1.476   1_455 S
C292   C45     1.476   1_455 S
C292   C261    1.476   1_455 S
