data_1165
_audit_creation_date              2023-09-08
_audit_creation_method            'Materials Studio'
_symmetry_space_group_name_H-M    'P1'
_symmetry_Int_Tables_number       1
_symmetry_cell_setting            triclinic
loop_
_symmetry_equiv_pos_as_xyz
  x,y,z
_cell_length_a                    7.4228
_cell_length_b                    44.2063
_cell_length_c                    44.4917
_cell_angle_alpha                 84.5100
_cell_angle_beta                  87.0700
_cell_angle_gamma                 87.0500
loop_
_atom_site_label
_atom_site_type_symbol
_atom_site_fract_x
_atom_site_fract_y
_atom_site_fract_z
_atom_site_U_iso_or_equiv
_atom_site_adp_type
_atom_site_occupancy
N1     N     0.19600   0.04510   0.45910   0.07060  Uiso   1.00
N2     N     0.16500   0.44840   0.07790   0.07910  Uiso   1.00
N3     N     0.68900   0.38400   0.79840   0.07910  Uiso   1.00
N4     N     0.71100   0.75560   0.41670   0.07060  Uiso   1.00
C5     C     0.44400   0.42530   0.41940   0.03510  Uiso   1.00
C6     C     0.28700   0.21750   0.48800   0.07060  Uiso   1.00
C7     C     0.40800   0.40350   0.22890   0.07910  Uiso   1.00
C8     C     0.18200   0.36050   0.35600   0.03510  Uiso   1.00
C9     C     0.35900   0.32460   0.45160   0.03510  Uiso   1.00
C10    C     0.53200   0.52580   0.38370   0.03510  Uiso   1.00
C11    C     0.80400   0.61680   0.35310   0.07060  Uiso   1.00
C12    C     0.08400   0.49040   0.22610   0.07910  Uiso   1.00
C13    C     0.52200   0.41430   0.70450   0.07910  Uiso   1.00
C14    C     0.31300   0.27950   0.49690   0.02200  Uiso   1.00
C15    C     0.14000   0.44020   0.14060   0.07910  Uiso   1.00
C16    C     0.83500   0.67440   0.35430   0.07060  Uiso   1.00
C17    C     0.78800   0.31960   0.72030   0.07910  Uiso   1.00
C18    C     0.19400   0.31730   0.40200   0.03510  Uiso   1.00
C19    C     0.27900   0.44950   0.25750   0.07910  Uiso   1.00
C20    C     0.67500   0.70180   0.39920   0.07060  Uiso   1.00
C21    C     0.39900   0.29390   0.55050   0.03510  Uiso   1.00
C22    C     0.52600   0.34560   0.56460   0.03510  Uiso   1.00
C23    C     0.31300   0.41460   0.36480   0.03510  Uiso   1.00
C24    C     0.30200   0.45910   0.31980   0.03510  Uiso   1.00
C25    C     0.46000   0.61260   0.44050   0.07060  Uiso   1.00
C26    C     0.67000   0.49090   0.48100   0.03510  Uiso   1.00
C27    C     0.43500   0.51250   0.32870   0.03510  Uiso   1.00
C28    C     0.53000   0.39070   0.52000   0.03510  Uiso   1.00
C29    C     0.50000   0.40550   0.64750   0.07910  Uiso   1.00
C30    C     0.64900   0.44500   0.52620   0.03510  Uiso   1.00
C31    C     0.67400   0.37100   0.74070   0.07910  Uiso   1.00
C32    C     0.32500   0.14010   0.42480   0.07060  Uiso   1.00
C33    C     0.45600   0.45490   0.05190   0.07910  Uiso   1.00
C34    C     0.11100   0.18310   0.53050   0.07060  Uiso   1.00
C35    C     0.01400   0.48620   0.16990   0.07910  Uiso   1.00
C36    C     0.77400   0.31250   0.66240   0.07910  Uiso   1.00
C37    C     0.62500   0.35540   0.62460   0.07910  Uiso   1.00
C38    C     0.15100   0.10550   0.46920   0.07060  Uiso   1.00
C39    C     0.78400   0.80220   0.38060   0.07060  Uiso   1.00
C40    C     0.39500   0.19540   0.43670   0.07060  Uiso   1.00
C41    C     0.05000   0.12660   0.52100   0.07060  Uiso   1.00
C42    C     0.78400   0.85820   0.40570   0.07060  Uiso   1.00
C43    C     0.48600   0.67160   0.44510   0.07060  Uiso   1.00
C44    C     0.47300   0.39330   0.96900   0.07910  Uiso   1.00
C45    C     0.93500   0.40190   0.82250   0.07910  Uiso   1.00
C46    C     0.47000   0.37990   0.46200   0.03510  Uiso   1.00
C47    C     0.61200   0.38100   0.91590   0.07910  Uiso   1.00
C48    C     0.58700   0.90040   0.37670   0.07060  Uiso   1.00
C49    C     0.58300   0.47910   0.42680   0.03510  Uiso   1.00
C50    C     0.95900   0.46130   0.90630   0.07910  Uiso   1.00
C51    C     0.58600   0.44170   0.99310   0.07910  Uiso   1.00
C52    C     0.61800   0.58360   0.39750   0.07060  Uiso   1.00
C53    C     0.82600   0.47260   0.96040   0.07910  Uiso   1.00
C54    C     0.62200   0.96680   0.45000   0.07060  Uiso   1.00
C55    C     0.33600   0.39800   0.17050   0.07910  Uiso   1.00
C56    C     0.90800   0.87120   0.46020   0.07060  Uiso   1.00
C57    C     0.83500   0.92680   0.47970   0.07060  Uiso   1.00
C58    C     0.50300   0.95240   0.39490   0.07060  Uiso   1.00
C59    C     0.51300   0.02490   0.46410   0.07060  Uiso   1.00
C60    C     0.84100   0.41310   0.88390   0.07910  Uiso   1.00
H61    H     0.57729   0.36842   0.25170   0.00000  Uiso   1.00
H62    H     0.07116   0.35139   0.31415   0.00000  Uiso   1.00
H63    H     0.92762   0.59386   0.31616   0.00000  Uiso   1.00
H64    H    -0.02121   0.52905   0.24860   0.00000  Uiso   1.00
H65    H     0.41673   0.45633   0.72081   0.00000  Uiso   1.00
H66    H     0.99000   0.69947   0.31893   0.00000  Uiso   1.00
H67    H     0.89358   0.28298   0.75086   0.00000  Uiso   1.00
H68    H     0.06652   0.27503   0.39919   0.00000  Uiso   1.00
H69    H     0.36837   0.26154   0.58960   0.00000  Uiso   1.00
H70    H     0.29561   0.58859   0.47532   0.00000  Uiso   1.00
H71    H     0.75372   0.53550   0.48815   0.00000  Uiso   1.00
H72    H     0.46388   0.54552   0.29010   0.00000  Uiso   1.00
H73    H     0.37501   0.44017   0.61695   0.00000  Uiso   1.00
H74    H     0.73265   0.45172   0.57065   0.00000  Uiso   1.00
H75    H     0.40612   0.12470   0.38142   0.00000  Uiso   1.00
H76    H     0.67014   0.47376   0.07400   0.00000  Uiso   1.00
H77    H     0.01973   0.20132   0.57214   0.00000  Uiso   1.00
H78    H    -0.15172   0.52111   0.14610   0.00000  Uiso   1.00
H79    H     0.88485   0.27128   0.64508   0.00000  Uiso   1.00
H80    H     0.84190   0.79749   0.33329   0.00000  Uiso   1.00
H81    H     0.54637   0.22288   0.40270   0.00000  Uiso   1.00
H82    H    -0.08347   0.09741   0.55583   0.00000  Uiso   1.00
H83    H     0.36954   0.69560   0.48186   0.00000  Uiso   1.00
H84    H     0.27310   0.36470   0.99204   0.00000  Uiso   1.00
H85    H     1.19062   0.40785   0.79802   0.00000  Uiso   1.00
H86    H     0.53442   0.34126   0.89615   0.00000  Uiso   1.00
H87    H     0.48198   0.89259   0.33400   0.00000  Uiso   1.00
H88    H     1.15324   0.49071   0.88280   0.00000  Uiso   1.00
H89    H     0.91623   0.51063   0.98153   0.00000  Uiso   1.00
H90    H     0.44068   0.35879   0.14884   0.00000  Uiso   1.00
H91    H     1.06260   0.83709   0.48712   0.00000  Uiso   1.00
H92    H     0.95412   0.93804   0.52012   0.00000  Uiso   1.00
H93    H     0.34046   0.98511   0.36774   0.00000  Uiso   1.00
H94    H     0.71193   0.05276   0.47977   0.00000  Uiso   1.00
loop_
_geom_bond_atom_site_label_1
_geom_bond_atom_site_label_2
_geom_bond_distance
_geom_bond_site_symmetry_2
_ccdc_geom_bond_type
N1     C59     1.316   .     D
N1     C38     1.455   .     S
N2     C33     1.278   .     D
N2     C15     1.469   .     S
N3     C45     1.255   .     D
N3     C31     1.425   .     S
N4     C39     1.350   .     D
N4     C20     1.377   .     S
C5     C46     1.393   .     S
C5     C49     1.426   .     S
C5     C23     1.457   .     D
C6     C40     1.397   .     D
C6     C34     1.400   .     S
C6     C14     1.494   .     S
C7     C19     1.384   .     D
C7     C55     1.437   .     S
C7     H61     1.140   .     S
C8     C18     1.410   .     D
C8     C23     1.427   .     S
C8     H62     1.140   .     S
C9     C18     1.393   .     S
C9     C46     1.433   .     S
C9     C14     1.438   .     D
C10    C49     1.432   .     D
C10    C27     1.435   .     S
C10    C52     1.480   .     S
C11    C16     1.362   .     S
C11    C52     1.433   .     D
C11    H63     1.140   .     S
C12    C35     1.379   .     D
C12    C19     1.377   .     S
C12    H64     1.140   .     S
C13    C29     1.385   .     S
C13    C31     1.390   .     D
C13    H65     1.140   .     S
C14    C21     1.399   .     S
C15    C55     1.381   .     D
C15    C35     1.390   .     S
C16    C20     1.394   .     D
C16    H66     1.140   .     S
C17    C31     1.382   .     S
C17    C36     1.393   .     D
C17    H67     1.140   .     S
C18    H68     1.140   .     S
C19    C24     1.513   .     S
C20    C43     1.430   .     S
C21    C22     1.406   .     D
C21    H69     1.140   .     S
C22    C28     1.416   .     S
C22    C37     1.525   .     S
C23    C24     1.413   .     S
C24    C27     1.416   .     D
C25    C52     1.376   .     S
C25    C43     1.404   .     D
C25    H70     1.140   .     S
C26    C49     1.394   .     S
C26    C30     1.440   .     D
C26    H71     1.140   .     S
C27    H72     1.140   .     S
C28    C30     1.399   .     S
C28    C46     1.445   .     D
C29    C37     1.393   .     D
C29    H73     1.140   .     S
C30    H74     1.140   .     S
C32    C40     1.393   .     S
C32    C38     1.427   .     D
C32    H75     1.140   .     S
C33    H76     1.140   .     S
C33    C51     1.505   1_554 S
C34    C41     1.396   .     D
C34    H77     1.140   .     S
C35    H78     1.140   .     S
C36    C37     1.401   .     S
C36    H79     1.140   .     S
C38    C41     1.391   .     S
C39    C42     1.488   .     S
C39    H80     1.140   .     S
C40    H81     1.140   .     S
C41    H82     1.140   .     S
C42    C48     1.373   .     S
C42    C56     1.459   .     D
C43    H83     1.140   .     S
C44    C47     1.388   .     S
C44    C51     1.415   .     D
C44    H84     1.140   .     S
C45    C60     1.517   .     S
C45    H85     1.140   .     S
C47    C60     1.354   .     D
C47    H86     1.140   .     S
C48    C58     1.348   .     D
C48    H87     1.140   .     S
C50    C53     1.395   .     D
C50    C60     1.399   .     S
C50    H88     1.140   .     S
C51    C53     1.376   .     S
C51    C33     1.505   1_556 S
C53    H89     1.140   .     S
C54    C57     1.385   .     D
C54    C58     1.475   .     S
C54    C59     1.467   1_565 S
C55    H90     1.140   .     S
C56    C57     1.431   .     S
C56    H91     1.140   .     S
C57    H92     1.140   .     S
C58    H93     1.140   .     S
C59    H94     1.140   .     S
C59    C54     1.467   1_545 S
