data_1218
_audit_creation_date              2023-09-08
_audit_creation_method            'Materials Studio'
_symmetry_space_group_name_H-M    'P1'
_symmetry_Int_Tables_number       1
_symmetry_cell_setting            triclinic
loop_
_symmetry_equiv_pos_as_xyz
  x,y,z
_cell_length_a                    20.7373
_cell_length_b                    20.7373
_cell_length_c                    37.7945
_cell_angle_alpha                 90.0000
_cell_angle_beta                  90.0000
_cell_angle_gamma                 120.0007
loop_
_atom_site_label
_atom_site_type_symbol
_atom_site_fract_x
_atom_site_fract_y
_atom_site_fract_z
_atom_site_U_iso_or_equiv
_atom_site_adp_type
_atom_site_occupancy
N1     N     0.04792   0.99130   0.22030   0.00000  Uiso   1.00
N2     N     0.28744   0.04413   0.22021   0.00000  Uiso   1.00
N3     N     0.00420   0.18383   0.22036   0.00000  Uiso   1.00
N4     N     0.81750   0.94432   0.22029   0.00000  Uiso   1.00
N5     N     0.24045   0.22757   0.22031   0.00000  Uiso   1.00
N6     N     0.18763   0.41426   0.22026   0.00000  Uiso   1.00
C7     C     0.18669   0.08776   0.22033   0.00000  Uiso   1.00
C8     C     0.96188   0.04506   0.22037   0.00000  Uiso   1.00
C9     C     0.33916   0.85593   0.22115   0.00000  Uiso   1.00
C10    C     0.48624   0.94687   0.22113   0.00000  Uiso   1.00
C11    C     0.57759   0.89263   0.22116   0.00000  Uiso   1.00
C12    C     0.52142   0.74551   0.22121   0.00000  Uiso   1.00
C13    C     0.37582   0.65417   0.22121   0.00000  Uiso   1.00
C14    C     0.28487   0.71033   0.22118   0.00000  Uiso   1.00
C15    C     0.24185   0.91042   0.22133   0.00000  Uiso   1.00
C16    C     0.72937   0.98993   0.22132   0.00000  Uiso   1.00
C17    C     0.32135   0.50239   0.22142   0.00000  Uiso   1.00
C18    C     0.14397   0.26987   0.22037   0.00000  Uiso   1.00
H19    H     0.52740   0.06043   0.22115   0.00000  Uiso   1.00
H20    H     0.59383   0.70440   0.22129   0.00000  Uiso   1.00
H21    H     0.17134   0.63791   0.22125   0.00000  Uiso   1.00
H22    H     0.76527   0.10353   0.22235   0.00000  Uiso   1.00
H23    H     0.39905   0.46651   0.22260   0.00000  Uiso   1.00
H24    H     0.12827   0.83270   0.22248   0.00000  Uiso   1.00
loop_
_geom_bond_atom_site_label_1
_geom_bond_atom_site_label_2
_geom_bond_distance
_geom_bond_site_symmetry_2
_ccdc_geom_bond_type
N1     C7      1.352   1_565 D
N1     C8      1.340   1_465 S
N2     C7      1.407   .     S
N2     C15     1.292   1_545 D
N3     C18     1.340   .     S
N3     C8      1.352   1_455 D
N4     C16     1.292   .     D
N4     C8      1.407   1_565 S
N5     C7      1.340   .     S
N5     C18     1.352   .     D
N6     C17     1.292   .     D
N6     C18     1.407   .     S
C7     N1      1.352   1_545 D
C8     N1      1.340   1_645 S
C8     N3      1.352   1_655 D
C8     N4      1.407   1_545 S
C9     C10     1.411   .     S
C9     C14     1.398   .     D
C9     C15     1.462   .     S
C10    C11     1.399   .     D
C10    H19     1.093   1_565 S
C11    C12     1.411   .     S
C11    C16     1.461   .     S
C12    C13     1.399   .     D
C12    H20     1.092   .     S
C13    C14     1.411   .     S
C13    C17     1.461   .     S
C14    H21     1.093   .     S
C15    H24     1.104   .     S
C15    N2      1.292   1_565 D
C16    H22     1.104   1_565 S
C17    H23     1.104   .     S
H19    C10     1.093   1_545 S
H22    C16     1.104   1_545 S
