data_1236
_audit_creation_date              2023-09-08
_audit_creation_method            'Materials Studio'
_symmetry_space_group_name_H-M    'P1'
_symmetry_Int_Tables_number       1
_symmetry_cell_setting            triclinic
loop_
_symmetry_equiv_pos_as_xyz
  x,y,z
_cell_length_a                    26.7264
_cell_length_b                    26.7264
_cell_length_c                    43.1330
_cell_angle_alpha                 90.0000
_cell_angle_beta                  90.0000
_cell_angle_gamma                 90.0000
loop_
_atom_site_label
_atom_site_type_symbol
_atom_site_fract_x
_atom_site_fract_y
_atom_site_fract_z
_atom_site_U_iso_or_equiv
_atom_site_adp_type
_atom_site_occupancy
C1     C     0.05827   0.06007   0.04213   0.00000  Uiso   1.00
C2     C     0.03594   0.03706   0.10052   0.00000  Uiso   1.00
C3     C     0.12499   0.12880   0.02852   0.00000  Uiso   1.00
C4     C     0.17080   0.17595   0.07451   0.00000  Uiso   1.00
C5     C     0.14910   0.15362   0.13402   0.00000  Uiso   1.00
C6     C     0.08103   0.08354   0.14627   0.00000  Uiso   1.00
C7     C     0.19409   0.19969   0.18095   0.00000  Uiso   1.00
C8     C     0.22811   0.23413   0.22562   0.00000  Uiso   1.00
C9     C     0.26168   0.26935   0.00803   0.00000  Uiso   1.00
O10    O     0.23735   0.24439   0.06678   0.00000  Uiso   1.00
H11    H     0.14091   0.14520   0.98297   0.00000  Uiso   1.00
H12    H     0.06534   0.06737   0.19193   0.00000  Uiso   1.00
H13    H     0.31557   0.32458   0.01187   0.00000  Uiso   1.00
H14    H     0.29106   0.20841   0.98409   0.00000  Uiso   1.00
H15    H     0.20002   0.29725   0.98411   0.00000  Uiso   1.00
C16    C     0.94173   0.93993   0.04213   0.00000  Uiso   1.00
C17    C     0.96406   0.96294   0.10052   0.00000  Uiso   1.00
C18    C     0.87501   0.87120   0.02852   0.00000  Uiso   1.00
C19    C     0.82920   0.82405   0.07451   0.00000  Uiso   1.00
C20    C     0.85090   0.84638   0.13402   0.00000  Uiso   1.00
C21    C     0.91897   0.91646   0.14627   0.00000  Uiso   1.00
C22    C     0.80591   0.80031   0.18095   0.00000  Uiso   1.00
C23    C     0.77189   0.76587   0.22562   0.00000  Uiso   1.00
C24    C     0.73832   0.73065   0.00803   0.00000  Uiso   1.00
O25    O     0.76265   0.75561   0.06678   0.00000  Uiso   1.00
H26    H     0.85909   0.85480   0.98297   0.00000  Uiso   1.00
H27    H     0.93466   0.93263   0.19193   0.00000  Uiso   1.00
H28    H     0.68443   0.67542   0.01187   0.00000  Uiso   1.00
H29    H     0.70894   0.79159   0.98409   0.00000  Uiso   1.00
H30    H     0.79998   0.70275   0.98411   0.00000  Uiso   1.00
C31    C     0.06007   0.94173   0.95787   0.00000  Uiso   1.00
C32    C     0.03706   0.96406   0.89948   0.00000  Uiso   1.00
C33    C     0.12880   0.87501   0.97148   0.00000  Uiso   1.00
C34    C     0.17595   0.82920   0.92549   0.00000  Uiso   1.00
C35    C     0.15362   0.85090   0.86598   0.00000  Uiso   1.00
C36    C     0.08354   0.91897   0.85373   0.00000  Uiso   1.00
C37    C     0.19969   0.80591   0.81905   0.00000  Uiso   1.00
C38    C     0.23413   0.77189   0.77438   0.00000  Uiso   1.00
C39    C     0.26935   0.73832   0.99197   0.00000  Uiso   1.00
O40    O     0.24439   0.76265   0.93322   0.00000  Uiso   1.00
H41    H     0.14520   0.85909   0.01703   0.00000  Uiso   1.00
H42    H     0.06737   0.93466   0.80807   0.00000  Uiso   1.00
H43    H     0.32458   0.68443   0.98813   0.00000  Uiso   1.00
H44    H     0.20841   0.70894   0.01591   0.00000  Uiso   1.00
H45    H     0.29725   0.79998   0.01589   0.00000  Uiso   1.00
C46    C     0.93993   0.05827   0.95787   0.00000  Uiso   1.00
C47    C     0.96294   0.03594   0.89948   0.00000  Uiso   1.00
C48    C     0.87120   0.12499   0.97148   0.00000  Uiso   1.00
C49    C     0.82405   0.17080   0.92549   0.00000  Uiso   1.00
C50    C     0.84638   0.14910   0.86598   0.00000  Uiso   1.00
C51    C     0.91646   0.08103   0.85373   0.00000  Uiso   1.00
C52    C     0.80031   0.19409   0.81905   0.00000  Uiso   1.00
C53    C     0.76587   0.22811   0.77438   0.00000  Uiso   1.00
C54    C     0.73065   0.26168   0.99197   0.00000  Uiso   1.00
O55    O     0.75561   0.23735   0.93322   0.00000  Uiso   1.00
H56    H     0.85480   0.14091   0.01703   0.00000  Uiso   1.00
H57    H     0.93263   0.06534   0.80807   0.00000  Uiso   1.00
H58    H     0.67542   0.31557   0.98813   0.00000  Uiso   1.00
H59    H     0.79159   0.29106   0.01591   0.00000  Uiso   1.00
H60    H     0.70275   0.20002   0.01589   0.00000  Uiso   1.00
C61    C     0.55827   0.43993   0.54213   0.00000  Uiso   1.00
C62    C     0.53594   0.46294   0.60052   0.00000  Uiso   1.00
C63    C     0.62499   0.37120   0.52852   0.00000  Uiso   1.00
C64    C     0.67080   0.32405   0.57451   0.00000  Uiso   1.00
C65    C     0.64910   0.34638   0.63402   0.00000  Uiso   1.00
C66    C     0.58103   0.41646   0.64627   0.00000  Uiso   1.00
C67    C     0.69409   0.30031   0.68095   0.00000  Uiso   1.00
C68    C     0.72811   0.26587   0.72562   0.00000  Uiso   1.00
C69    C     0.76168   0.23065   0.50803   0.00000  Uiso   1.00
O70    O     0.73735   0.25561   0.56678   0.00000  Uiso   1.00
H71    H     0.64091   0.35480   0.48297   0.00000  Uiso   1.00
H72    H     0.56534   0.43263   0.69193   0.00000  Uiso   1.00
H73    H     0.81557   0.17542   0.51187   0.00000  Uiso   1.00
H74    H     0.79106   0.29159   0.48409   0.00000  Uiso   1.00
H75    H     0.70002   0.20275   0.48411   0.00000  Uiso   1.00
C76    C     0.44173   0.56007   0.54213   0.00000  Uiso   1.00
C77    C     0.46406   0.53706   0.60052   0.00000  Uiso   1.00
C78    C     0.37501   0.62880   0.52852   0.00000  Uiso   1.00
C79    C     0.32920   0.67595   0.57451   0.00000  Uiso   1.00
C80    C     0.35090   0.65362   0.63402   0.00000  Uiso   1.00
C81    C     0.41897   0.58354   0.64627   0.00000  Uiso   1.00
C82    C     0.30591   0.69969   0.68095   0.00000  Uiso   1.00
C83    C     0.27189   0.73413   0.72562   0.00000  Uiso   1.00
C84    C     0.23832   0.76935   0.50803   0.00000  Uiso   1.00
O85    O     0.26265   0.74439   0.56678   0.00000  Uiso   1.00
H86    H     0.35909   0.64520   0.48297   0.00000  Uiso   1.00
H87    H     0.43466   0.56737   0.69193   0.00000  Uiso   1.00
H88    H     0.18443   0.82458   0.51187   0.00000  Uiso   1.00
H89    H     0.20894   0.70841   0.48409   0.00000  Uiso   1.00
H90    H     0.29998   0.79725   0.48411   0.00000  Uiso   1.00
C91    C     0.56007   0.55827   0.45787   0.00000  Uiso   1.00
C92    C     0.53706   0.53594   0.39948   0.00000  Uiso   1.00
C93    C     0.62880   0.62499   0.47148   0.00000  Uiso   1.00
C94    C     0.67595   0.67080   0.42549   0.00000  Uiso   1.00
C95    C     0.65362   0.64910   0.36598   0.00000  Uiso   1.00
C96    C     0.58354   0.58103   0.35373   0.00000  Uiso   1.00
C97    C     0.69969   0.69409   0.31905   0.00000  Uiso   1.00
C98    C     0.73413   0.72811   0.27438   0.00000  Uiso   1.00
C99    C     0.76935   0.76168   0.49197   0.00000  Uiso   1.00
O100   O     0.74439   0.73735   0.43322   0.00000  Uiso   1.00
H101   H     0.64520   0.64091   0.51703   0.00000  Uiso   1.00
H102   H     0.56737   0.56534   0.30807   0.00000  Uiso   1.00
H103   H     0.82458   0.81557   0.48813   0.00000  Uiso   1.00
H104   H     0.70841   0.79106   0.51591   0.00000  Uiso   1.00
H105   H     0.79725   0.70002   0.51589   0.00000  Uiso   1.00
C106   C     0.43993   0.44173   0.45787   0.00000  Uiso   1.00
C107   C     0.46294   0.46406   0.39948   0.00000  Uiso   1.00
C108   C     0.37120   0.37501   0.47148   0.00000  Uiso   1.00
C109   C     0.32405   0.32920   0.42549   0.00000  Uiso   1.00
C110   C     0.34638   0.35090   0.36598   0.00000  Uiso   1.00
C111   C     0.41646   0.41897   0.35373   0.00000  Uiso   1.00
C112   C     0.30031   0.30591   0.31905   0.00000  Uiso   1.00
C113   C     0.26587   0.27189   0.27438   0.00000  Uiso   1.00
C114   C     0.23065   0.23832   0.49197   0.00000  Uiso   1.00
O115   O     0.25561   0.26265   0.43322   0.00000  Uiso   1.00
H116   H     0.35480   0.35909   0.51703   0.00000  Uiso   1.00
H117   H     0.43263   0.43466   0.30807   0.00000  Uiso   1.00
H118   H     0.17542   0.18443   0.48813   0.00000  Uiso   1.00
H119   H     0.29159   0.20894   0.51591   0.00000  Uiso   1.00
H120   H     0.20275   0.29998   0.51589   0.00000  Uiso   1.00
C121   C     0.00000   0.00000   0.00000   0.00000  Uiso   1.00
C122   C     0.50000   0.50000   0.50000   0.00000  Uiso   1.00
loop_
_geom_bond_atom_site_label_1
_geom_bond_atom_site_label_2
_geom_bond_distance
_geom_bond_site_symmetry_2
_ccdc_geom_bond_type
C1     C2      1.408   .     D
C1     C3      1.390   .     S
C1     C121    1.525   .     S
C2     C6      1.389   .     S
C2     C17     1.460   1_445 S
C3     C4      1.402   .     D
C3     H11     1.089   1_554 S
C4     C5      1.428   .     S
C4     O10     1.362   .     S
C5     C6      1.410   .     D
C5     C7      1.406   .     S
C6     H12     1.090   .     S
C7     C8      1.228   .     T
C8     C113    1.345   .     S
C9     O10     1.429   .     S
C9     H13     1.095   .     S
C9     H14     1.102   1_554 S
C9     H15     1.102   1_554 S
H11    C3      1.089   1_556 S
H14    C9      1.102   1_556 S
H15    C9      1.102   1_556 S
C16    C17     1.408   .     D
C16    C18     1.390   .     S
C16    C121    1.525   1_665 S
C17    C21     1.389   .     S
C17    C2      1.460   1_665 S
C18    C19     1.402   .     D
C18    H26     1.089   1_554 S
C19    C20     1.428   .     S
C19    O25     1.362   .     S
C20    C21     1.410   .     D
C20    C22     1.406   .     S
C21    H27     1.090   .     S
C22    C23     1.228   .     T
C23    C98     1.345   .     S
C24    O25     1.429   .     S
C24    H28     1.095   .     S
C24    H29     1.102   1_554 S
C24    H30     1.102   1_554 S
H26    C18     1.089   1_556 S
H29    C24     1.102   1_556 S
H30    C24     1.102   1_556 S
C31    C32     1.408   .     D
C31    C33     1.390   .     S
C31    C121    1.525   1_566 S
C32    C36     1.389   .     S
C32    C47     1.460   1_465 S
C33    C34     1.402   .     D
C33    H41     1.089   1_556 S
C34    C35     1.428   .     S
C34    O40     1.362   .     S
C35    C36     1.410   .     D
C35    C37     1.406   .     S
C36    H42     1.090   .     S
C37    C38     1.228   .     T
C38    C83     1.345   .     S
C39    O40     1.429   .     S
C39    H43     1.095   .     S
C39    H44     1.102   1_556 S
C39    H45     1.102   1_556 S
H41    C33     1.089   1_554 S
H44    C39     1.102   1_554 S
H45    C39     1.102   1_554 S
C46    C47     1.408   .     D
C46    C48     1.390   .     S
C46    C121    1.525   1_656 S
C47    C51     1.389   .     S
C47    C32     1.460   1_645 S
C48    C49     1.402   .     D
C48    H56     1.089   1_556 S
C49    C50     1.428   .     S
C49    O55     1.362   .     S
C50    C51     1.410   .     D
C50    C52     1.406   .     S
C51    H57     1.090   .     S
C52    C53     1.228   .     T
C53    C68     1.345   .     S
C54    O55     1.429   .     S
C54    H58     1.095   .     S
C54    H59     1.102   1_556 S
C54    H60     1.102   1_556 S
H56    C48     1.089   1_554 S
H59    C54     1.102   1_554 S
H60    C54     1.102   1_554 S
C61    C62     1.408   .     D
C61    C63     1.390   .     S
C61    C122    1.525   .     S
C62    C66     1.389   .     S
C62    C77     1.460   .     S
C63    C64     1.402   .     D
C63    H71     1.089   .     S
C64    C65     1.428   .     S
C64    O70     1.362   .     S
C65    C66     1.410   .     D
C65    C67     1.406   .     S
C66    H72     1.090   .     S
C67    C68     1.228   .     T
C69    O70     1.429   .     S
C69    H73     1.095   .     S
C69    H74     1.102   .     S
C69    H75     1.102   .     S
C76    C77     1.408   .     S
C76    C78     1.390   .     D
C76    C122    1.525   .     S
C77    C81     1.389   .     D
C78    C79     1.402   .     S
C78    H86     1.089   .     S
C79    C80     1.428   .     D
C79    O85     1.362   .     S
C80    C81     1.410   .     S
C80    C82     1.406   .     S
C81    H87     1.090   .     S
C82    C83     1.228   .     T
C84    O85     1.429   .     S
C84    H88     1.095   .     S
C84    H89     1.102   .     S
C84    H90     1.102   .     S
C91    C92     1.408   .     D
C91    C93     1.390   .     S
C91    C122    1.525   .     S
C92    C96     1.389   .     S
C92    C107    1.460   .     S
C93    C94     1.402   .     D
C93    H101    1.089   .     S
C94    C95     1.428   .     S
C94    O100    1.362   .     S
C95    C96     1.410   .     D
C95    C97     1.406   .     S
C96    H102    1.090   .     S
C97    C98     1.228   .     T
C99    O100    1.429   .     S
C99    H103    1.095   .     S
C99    H104    1.102   .     S
C99    H105    1.102   .     S
C106   C107    1.408   .     S
C106   C108    1.390   .     D
C106   C122    1.525   .     S
C107   C111    1.389   .     D
C108   C109    1.402   .     S
C108   H116    1.089   .     S
C109   C110    1.428   .     D
C109   O115    1.362   .     S
C110   C111    1.410   .     S
C110   C112    1.406   .     S
C111   H117    1.090   .     S
C112   C113    1.228   .     T
C114   O115    1.429   .     S
C114   H118    1.095   .     S
C114   H119    1.102   .     S
C114   H120    1.102   .     S
C121   C16     1.525   1_445 S
C121   C31     1.525   1_544 S
C121   C46     1.525   1_454 S
