data_40
_audit_creation_date              2023-09-08
_audit_creation_method            'Materials Studio'
_symmetry_space_group_name_H-M    'P1'
_symmetry_Int_Tables_number       1
_symmetry_cell_setting            triclinic
loop_
_symmetry_equiv_pos_as_xyz
  x,y,z
_cell_length_a                    43.1753
_cell_length_b                    43.1753
_cell_length_c                    6.6176
_cell_angle_alpha                 90.0000
_cell_angle_beta                  90.0000
_cell_angle_gamma                 120.0000
loop_
_atom_site_label
_atom_site_type_symbol
_atom_site_fract_x
_atom_site_fract_y
_atom_site_fract_z
_atom_site_U_iso_or_equiv
_atom_site_adp_type
_atom_site_occupancy
C1     C     0.74052   0.37026   0.50000   0.00000  Uiso   1.00
C2     C     0.62974   0.37026   0.50000   0.00000  Uiso   1.00
C3     C     0.62974   0.25948   0.50000   0.00000  Uiso   1.00
C4     C     0.70146   0.29854   0.50000   0.00000  Uiso   1.00
C5     C     0.70146   0.40293   0.50000   0.00000  Uiso   1.00
C6     C     0.59708   0.29854   0.50000   0.00000  Uiso   1.00
H7     H     0.72676   0.27324   0.50000   0.00000  Uiso   1.00
H8     H     0.72676   0.45352   0.50000   0.00000  Uiso   1.00
H9     H     0.54648   0.27324   0.50000   0.00000  Uiso   1.00
C10    C     0.25948   0.62974   0.50000   0.00000  Uiso   1.00
C11    C     0.37026   0.62974   0.50000   0.00000  Uiso   1.00
C12    C     0.37026   0.74052   0.50000   0.00000  Uiso   1.00
C13    C     0.29854   0.70146   0.50000   0.00000  Uiso   1.00
C14    C     0.29854   0.59707   0.50000   0.00000  Uiso   1.00
C15    C     0.40293   0.70146   0.50000   0.00000  Uiso   1.00
H16    H     0.27324   0.72676   0.50000   0.00000  Uiso   1.00
H17    H     0.27324   0.54648   0.50000   0.00000  Uiso   1.00
H18    H     0.45352   0.72676   0.50000   0.00000  Uiso   1.00
C19    C     0.18635   0.59318   0.50000   0.00000  Uiso   1.00
C20    C     0.40682   0.59318   0.50000   0.00000  Uiso   1.00
C21    C     0.40682   0.81365   0.50000   0.00000  Uiso   1.00
C22    C     0.14672   0.62539   0.50000   0.00000  Uiso   1.00
C23    C     0.37461   0.52133   0.50000   0.00000  Uiso   1.00
C24    C     0.47867   0.85328   0.50000   0.00000  Uiso   1.00
C25    C     0.37461   0.85328   0.50000   0.00000  Uiso   1.00
C26    C     0.47867   0.62539   0.50000   0.00000  Uiso   1.00
C27    C     0.14672   0.52133   0.50000   0.00000  Uiso   1.00
C28    C     0.07558   0.58986   0.50000   0.00000  Uiso   1.00
C29    C     0.41014   0.48572   0.50000   0.00000  Uiso   1.00
C30    C     0.51428   0.92443   0.50000   0.00000  Uiso   1.00
C31    C     0.41014   0.92443   0.50000   0.00000  Uiso   1.00
C32    C     0.51428   0.58986   0.50000   0.00000  Uiso   1.00
C33    C     0.07558   0.48572   0.50000   0.00000  Uiso   1.00
C34    C     0.03637   0.51819   0.50000   0.00000  Uiso   1.00
C35    C     0.48181   0.51819   0.50000   0.00000  Uiso   1.00
C36    C     0.48181   0.96363   0.50000   0.00000  Uiso   1.00
C37    C     0.96363   0.48181   0.50000   0.00000  Uiso   1.00
C38    C     0.51819   0.48181   0.50000   0.00000  Uiso   1.00
C39    C     0.51819   0.03637   0.50000   0.00000  Uiso   1.00
C40    C     0.92443   0.51428   0.50000   0.00000  Uiso   1.00
C41    C     0.48572   0.41014   0.50000   0.00000  Uiso   1.00
C42    C     0.58986   0.07558   0.50000   0.00000  Uiso   1.00
C43    C     0.48572   0.07558   0.50000   0.00000  Uiso   1.00
C44    C     0.58986   0.51428   0.50000   0.00000  Uiso   1.00
C45    C     0.92443   0.41014   0.50000   0.00000  Uiso   1.00
C46    C     0.85328   0.47867   0.50000   0.00000  Uiso   1.00
C47    C     0.52133   0.37461   0.50000   0.00000  Uiso   1.00
C48    C     0.62539   0.14672   0.50000   0.00000  Uiso   1.00
C49    C     0.52133   0.14672   0.50000   0.00000  Uiso   1.00
C50    C     0.62539   0.47867   0.50000   0.00000  Uiso   1.00
C51    C     0.85328   0.37461   0.50000   0.00000  Uiso   1.00
C52    C     0.81365   0.40682   0.50000   0.00000  Uiso   1.00
C53    C     0.59318   0.40682   0.50000   0.00000  Uiso   1.00
C54    C     0.59318   0.18635   0.50000   0.00000  Uiso   1.00
H55    H     0.16797   0.67650   0.50000   0.00000  Uiso   1.00
H56    H     0.32350   0.49147   0.50000   0.00000  Uiso   1.00
H57    H     0.50853   0.83203   0.50000   0.00000  Uiso   1.00
H58    H     0.32350   0.83203   0.50000   0.00000  Uiso   1.00
H59    H     0.50853   0.67650   0.50000   0.00000  Uiso   1.00
H60    H     0.16797   0.49147   0.50000   0.00000  Uiso   1.00
H61    H     0.05367   0.61919   0.50000   0.00000  Uiso   1.00
H62    H     0.38082   0.43448   0.50000   0.00000  Uiso   1.00
H63    H     0.56552   0.94633   0.50000   0.00000  Uiso   1.00
H64    H     0.38082   0.94633   0.50000   0.00000  Uiso   1.00
H65    H     0.56552   0.61918   0.50000   0.00000  Uiso   1.00
H66    H     0.05367   0.43448   0.50000   0.00000  Uiso   1.00
H67    H     0.94633   0.56552   0.50000   0.00000  Uiso   1.00
H68    H     0.43449   0.38082   0.50000   0.00000  Uiso   1.00
H69    H     0.61919   0.05367   0.50000   0.00000  Uiso   1.00
H70    H     0.43449   0.05367   0.50000   0.00000  Uiso   1.00
H71    H     0.61919   0.56552   0.50000   0.00000  Uiso   1.00
H72    H     0.94633   0.38082   0.50000   0.00000  Uiso   1.00
H73    H     0.83203   0.50853   0.50000   0.00000  Uiso   1.00
H74    H     0.49147   0.32350   0.50000   0.00000  Uiso   1.00
H75    H     0.67650   0.16797   0.50000   0.00000  Uiso   1.00
H76    H     0.49147   0.16797   0.50000   0.00000  Uiso   1.00
H77    H     0.67650   0.50853   0.50000   0.00000  Uiso   1.00
H78    H     0.83203   0.32350   0.50000   0.00000  Uiso   1.00
loop_
_geom_bond_atom_site_label_1
_geom_bond_atom_site_label_2
_geom_bond_distance
_geom_bond_site_symmetry_2
_ccdc_geom_bond_type
C1     C4      1.421   .     S
C1     C5      1.421   .     D
C1     C52     1.447   .     S
C2     C5      1.421   .     S
C2     C6      1.421   .     D
C2     C53     1.447   .     S
C3     C4      1.421   .     D
C3     C6      1.421   .     S
C3     C54     1.447   .     S
C4     H7      1.001   .     S
C5     H8      1.001   .     S
C6     H9      1.001   .     S
C10    C13     1.421   .     S
C10    C14     1.421   .     D
C10    C19     1.447   .     S
C11    C14     1.421   .     S
C11    C15     1.421   .     D
C11    C20     1.447   .     S
C12    C13     1.421   .     D
C12    C15     1.421   .     S
C12    C21     1.447   .     S
C13    H16     1.001   .     S
C14    H17     1.001   .     S
C15    H18     1.001   .     S
C19    C22     1.424   .     D
C19    C27     1.424   .     S
C20    C23     1.424   .     D
C20    C26     1.424   .     S
C21    C24     1.424   .     S
C21    C25     1.424   .     D
C22    C28     1.408   .     S
C22    H55     1.016   .     S
C23    C29     1.408   .     S
C23    H56     1.016   .     S
C24    C30     1.408   .     D
C24    H57     1.016   .     S
C25    C31     1.408   .     S
C25    H58     1.016   .     S
C26    C32     1.408   .     D
C26    H59     1.016   .     S
C27    C33     1.408   .     D
C27    H60     1.016   .     S
C28    C34     1.420   .     D
C28    H61     1.017   .     S
C29    C35     1.420   .     D
C29    H62     1.017   .     S
C30    C36     1.420   .     S
C30    H63     1.017   .     S
C31    C36     1.420   .     D
C31    H64     1.017   .     S
C32    C35     1.420   .     S
C32    H65     1.017   .     S
C33    C34     1.420   .     S
C33    H66     1.017   .     S
C34    C37     1.439   1_455 S
C35    C38     1.439   .     S
C36    C39     1.439   1_565 S
C37    C34     1.439   1_655 S
C37    C40     1.420   .     S
C37    C45     1.420   .     D
C38    C41     1.420   .     D
C38    C44     1.420   .     S
C39    C36     1.439   1_545 S
C39    C42     1.420   .     S
C39    C43     1.420   .     D
C40    C46     1.408   .     D
C40    H67     1.017   .     S
C41    C47     1.408   .     S
C41    H68     1.017   .     S
C42    C48     1.408   .     D
C42    H69     1.017   .     S
C43    C49     1.408   .     S
C43    H70     1.017   .     S
C44    C50     1.408   .     D
C44    H71     1.017   .     S
C45    C51     1.408   .     S
C45    H72     1.017   .     S
C46    C52     1.424   .     S
C46    H73     1.016   .     S
C47    C53     1.424   .     D
C47    H74     1.016   .     S
C48    C54     1.424   .     S
C48    H75     1.016   .     S
C49    C54     1.424   .     D
C49    H76     1.016   .     S
C50    C53     1.424   .     S
C50    H77     1.016   .     S
C51    C52     1.424   .     D
C51    H78     1.016   .     S
